[Format]      =  1
[Precision]   =  1e-008
[MinAngle]    =  30
[DoSmartMesh] =  1
[Depth]       =  1000
[LengthUnits] =  millimeters
[ProblemType] =  planar
[Coordinates] =  cartesian
[PrevSoln] = ""
[dT] = 0
[Comment]     =  "Add comments here."
[PointProps]   = 0
[BdryProps]   = 1
  <BeginBdry>
    <BdryName> = "5DegC"
    <BdryType> = 0
    <Tset> = 278
    <qs>   = 0
    <beta> = 0
    <h>    = 0
    <Tinf> = 0
  <EndBdry>
[BlockProps]  = 3
  <BeginBlock>
    <BlockName> = "Copper10AWG"
    <Kx> = 385
    <Ky> = 385
    <Kt> = 3.3799999999999999
    <qv> = 827243
  <EndBlock>
  <BeginBlock>
    <BlockName> = "Aluminum"
    <Kx> = 167
    <Ky> = 167
    <Kt> = 3.3700000000000001
    <qv> = 0
  <EndBlock>
  <BeginBlock>
    <BlockName> = "SiC Casting"
    <Kx> = 4.2999999999999998
    <Ky> = 4.2999999999999998
    <Kt> = 1.75
    <qv> = 0
  <EndBlock>
[ConductorProps]  = 0
[NumPoints] = 522
-29.999999999999961	-45.600000000000087	0	0	0
-29.99999999999995	-39.40000000000007	0	0	0
-42.999999999999979	-39.400000000000098	0	0	0
-42.999999999999929	-45.600000000000101	0	0	0
-30.000000000000011	-24.300000000000072	0	0	0
-30.000000000000021	-18.100000000000058	0	0	0
-43.000000000000028	-18.100000000000069	0	0	0
-43.000000000000028	-24.300000000000072	0	0	0
30.000000000000039	-42.600000000000058	0	0	0
-29.999999999999961	-42.600000000000087	0	0	0
30.000000000000039	-45.600000000000051	0	0	0
-30	-3.000000000000004	0	0	0
-30	3.2000000000000051	0	0	0
-43	3.2000000000000051	0	0	0
-43	-3.0000000000000062	0	0	0
-26.550000000000011	18.29999999999999	0	0	0
30	18.29999999999999	0	0	0
30	24.300000000000011	0	0	0
-26.550000000000011	24.300000000000001	0	0	0
30	1.55e-014	0	0	0
-26.550000000000011	4.3999999999999997e-015	0	0	0
30.000000000000021	-21.300000000000029	0	0	0
-26.549999999999979	-21.300000000000061	0	0	0
-26.550000000000001	-3.0000000000000071	0	0	0
-26.549999999999962	-42.600000000000087	0	0	0
-26.549999999999979	-24.300000000000072	0	0	0
-30	0	0	0	0
30	-2.9999999999999849	0	0	0
-30.000000000000021	-21.300000000000061	0	0	0
30.000000000000028	-24.300000000000029	0	0	0
-31.824999999999999	3.2000000000000091	0	0	0
-41.174999999999997	3.2000000000000091	0	0	0
30	2.8500000000000179	0	0	0
27.299999999999997	2.8500000000000179	0	0	0
30	7.0500000000000176	0	0	0
27.299999999999997	7.0500000000000176	0	0	0
29.999999999999993	11.250000000000011	0	0	0
27.29999999999999	11.250000000000011	0	0	0
29.999999999999993	15.45000000000001	0	0	0
27.29999999999999	15.45000000000001	0	0	0
27.199999999999992	15.45000000000001	0	0	0
24.499999999999989	15.45000000000001	0	0	0
27.199999999999992	11.250000000000011	0	0	0
24.499999999999989	11.250000000000011	0	0	0
27.200000000000003	7.0500000000000176	0	0	0
24.5	7.0500000000000176	0	0	0
27.200000000000003	2.850000000000017	0	0	0
24.5	2.850000000000017	0	0	0
24.399999999999991	15.45000000000001	0	0	0
21.699999999999989	15.45000000000001	0	0	0
24.399999999999991	11.250000000000011	0	0	0
21.699999999999989	11.250000000000011	0	0	0
24.400000000000002	7.0500000000000167	0	0	0
21.699999999999999	7.0500000000000167	0	0	0
24.400000000000002	2.850000000000017	0	0	0
21.699999999999999	2.850000000000017	0	0	0
21.599999999999991	15.45000000000001	0	0	0
18.899999999999988	15.45000000000001	0	0	0
21.599999999999991	11.250000000000011	0	0	0
18.899999999999988	11.250000000000011	0	0	0
21.600000000000001	7.0500000000000167	0	0	0
18.899999999999999	7.0500000000000167	0	0	0
21.600000000000001	2.850000000000017	0	0	0
18.899999999999999	2.850000000000017	0	0	0
18.79999999999999	15.45000000000001	0	0	0
16.099999999999987	15.45000000000001	0	0	0
18.79999999999999	11.250000000000011	0	0	0
16.099999999999987	11.250000000000011	0	0	0
18.800000000000001	7.0500000000000167	0	0	0
16.099999999999998	7.0500000000000167	0	0	0
18.800000000000001	2.850000000000017	0	0	0
16.099999999999998	2.850000000000017	0	0	0
15.999999999999991	15.45000000000001	0	0	0
13.299999999999988	15.45000000000001	0	0	0
15.999999999999991	11.250000000000011	0	0	0
13.299999999999988	11.250000000000011	0	0	0
16	7.0500000000000158	0	0	0
13.299999999999999	7.0500000000000158	0	0	0
16	2.8500000000000161	0	0	0
13.299999999999999	2.8500000000000161	0	0	0
13.199999999999992	15.45000000000001	0	0	0
10.499999999999989	15.45000000000001	0	0	0
13.199999999999992	11.250000000000011	0	0	0
10.499999999999989	11.250000000000011	0	0	0
13.200000000000001	7.0500000000000158	0	0	0
10.499999999999998	7.0500000000000158	0	0	0
13.200000000000001	2.8500000000000152	0	0	0
10.499999999999998	2.8500000000000152	0	0	0
10.399999999999997	15.45000000000001	0	0	0
7.699999999999994	15.45000000000001	0	0	0
10.399999999999997	11.250000000000011	0	0	0
7.699999999999994	11.250000000000011	0	0	0
10.400000000000002	7.0500000000000158	0	0	0
7.6999999999999993	7.0500000000000158	0	0	0
10.400000000000002	2.8500000000000152	0	0	0
7.6999999999999993	2.8500000000000152	0	0	0
7.5999999999999961	15.45000000000001	0	0	0
4.8999999999999932	15.45000000000001	0	0	0
7.5999999999999961	11.250000000000011	0	0	0
4.8999999999999932	11.250000000000011	0	0	0
7.6000000000000014	7.0500000000000158	0	0	0
4.8999999999999986	7.0500000000000158	0	0	0
7.6000000000000014	2.8500000000000152	0	0	0
4.8999999999999986	2.8500000000000152	0	0	0
4.799999999999998	15.45000000000001	0	0	0
2.0999999999999961	15.45000000000001	0	0	0
4.799999999999998	11.250000000000011	0	0	0
2.0999999999999961	11.250000000000011	0	0	0
4.8000000000000025	7.050000000000014	0	0	0
2.1000000000000001	7.050000000000014	0	0	0
4.8000000000000025	2.8500000000000139	0	0	0
2.1000000000000001	2.8500000000000139	0	0	0
1.999999999999996	15.45000000000001	0	0	0
-0.70000000000000584	15.45000000000001	0	0	0
1.999999999999996	11.250000000000011	0	0	0
-0.70000000000000584	11.250000000000011	0	0	0
2.0000000000000004	7.050000000000014	0	0	0
-0.70000000000000151	7.050000000000014	0	0	0
2.0000000000000004	2.8500000000000139	0	0	0
-0.70000000000000151	2.8500000000000139	0	0	0
-0.80000000000000204	15.45000000000001	0	0	0
-3.500000000000004	15.45000000000001	0	0	0
-0.80000000000000204	11.250000000000011	0	0	0
-3.500000000000004	11.250000000000011	0	0	0
-0.79999999999999716	7.050000000000014	0	0	0
-3.4999999999999991	7.050000000000014	0	0	0
-0.79999999999999716	2.8500000000000139	0	0	0
-3.4999999999999991	2.8500000000000139	0	0	0
-3.6000000000000001	15.45000000000001	0	0	0
-6.3000000000000025	15.45000000000001	0	0	0
-3.6000000000000001	11.250000000000011	0	0	0
-6.3000000000000025	11.250000000000011	0	0	0
-3.5999999999999948	7.050000000000014	0	0	0
-6.2999999999999972	7.050000000000014	0	0	0
-3.5999999999999948	2.8500000000000139	0	0	0
-6.2999999999999972	2.8500000000000139	0	0	0
-6.4000000000000021	15.45000000000001	0	0	0
-9.1000000000000032	15.45000000000001	0	0	0
-6.4000000000000021	11.250000000000011	0	0	0
-9.1000000000000032	11.250000000000011	0	0	0
-6.3999999999999986	7.050000000000014	0	0	0
-9.0999999999999996	7.050000000000014	0	0	0
-6.3999999999999986	2.850000000000013	0	0	0
-9.0999999999999996	2.850000000000013	0	0	0
-9.1999999999999993	15.45000000000001	0	0	0
-11.900000000000002	15.45000000000001	0	0	0
-9.1999999999999993	11.250000000000011	0	0	0
-11.900000000000002	11.250000000000011	0	0	0
-9.1999999999999886	7.050000000000014	0	0	0
-11.899999999999991	7.050000000000014	0	0	0
-9.1999999999999886	2.8500000000000121	0	0	0
-11.899999999999991	2.8500000000000121	0	0	0
-11.999999999999998	15.45000000000001	0	0	0
-14.700000000000001	15.45000000000001	0	0	0
-11.999999999999998	11.250000000000011	0	0	0
-14.700000000000001	11.250000000000011	0	0	0
-11.999999999999989	7.0500000000000131	0	0	0
-14.699999999999992	7.0500000000000131	0	0	0
-11.999999999999989	2.8500000000000121	0	0	0
-14.699999999999992	2.8500000000000121	0	0	0
-14.799999999999997	15.45000000000001	0	0	0
-17.5	15.45000000000001	0	0	0
-14.799999999999997	11.250000000000011	0	0	0
-17.5	11.250000000000011	0	0	0
-14.799999999999997	7.0500000000000131	0	0	0
-17.5	7.0500000000000131	0	0	0
-14.799999999999997	2.8500000000000121	0	0	0
-17.5	2.8500000000000121	0	0	0
-17.599999999999998	15.45000000000001	0	0	0
-20.300000000000001	15.45000000000001	0	0	0
-17.599999999999998	11.250000000000011	0	0	0
-20.300000000000001	11.250000000000011	0	0	0
-17.599999999999998	7.0500000000000131	0	0	0
-20.300000000000001	7.0500000000000131	0	0	0
-17.599999999999998	2.8500000000000121	0	0	0
-20.300000000000001	2.8500000000000121	0	0	0
-20.399999999999999	15.45000000000001	0	0	0
-23.100000000000001	15.45000000000001	0	0	0
-20.399999999999999	11.250000000000011	0	0	0
-23.100000000000001	11.250000000000011	0	0	0
-20.399999999999988	7.0500000000000114	0	0	0
-23.099999999999991	7.0500000000000114	0	0	0
-20.399999999999988	2.8500000000000121	0	0	0
-23.099999999999991	2.8500000000000121	0	0	0
-23.199999999999999	15.45000000000001	0	0	0
-25.900000000000002	15.45000000000001	0	0	0
-23.199999999999999	11.250000000000011	0	0	0
-25.900000000000002	11.250000000000011	0	0	0
-23.199999999999999	7.0500000000000114	0	0	0
-25.900000000000002	7.0500000000000114	0	0	0
-23.199999999999999	2.8500000000000112	0	0	0
-25.900000000000002	2.8500000000000112	0	0	0
-9.9000000000000092	24.300000000000001	0	0	0
-19.20000000000001	24.300000000000001	0	0	0
22.649999999999991	24.300000000000011	0	0	0
13.349999999999989	24.300000000000011	0	0	0
6.3749999999999893	24.300000000000001	0	0	0
-2.9250000000000114	24.300000000000001	0	0	0
18.800000000000001	-5.8500000000000334	0	0	0
16.099999999999998	-5.8500000000000334	0	0	0
21.600000000000012	-5.8500000000000298	0	0	0
18.900000000000009	-5.8500000000000298	0	0	0
24.400000000000013	-14.25000000000003	0	0	0
21.70000000000001	-14.25000000000003	0	0	0
24.400000000000013	-10.050000000000029	0	0	0
21.70000000000001	-10.050000000000029	0	0	0
24.400000000000013	-5.8500000000000281	0	0	0
21.70000000000001	-5.8500000000000281	0	0	0
27.20000000000001	-10.050000000000029	0	0	0
24.500000000000007	-10.050000000000029	0	0	0
27.20000000000001	-5.8500000000000263	0	0	0
24.500000000000007	-5.8500000000000263	0	0	0
30.000000000000021	-18.450000000000021	0	0	0
27.300000000000018	-18.450000000000021	0	0	0
30.000000000000011	-14.25000000000002	0	0	0
27.300000000000008	-14.25000000000002	0	0	0
30.000000000000011	-10.05000000000002	0	0	0
27.300000000000008	-10.05000000000002	0	0	0
21.600000000000023	-10.050000000000029	0	0	0
18.90000000000002	-10.050000000000029	0	0	0
24.40000000000002	-18.450000000000031	0	0	0
21.700000000000017	-18.450000000000031	0	0	0
18.800000000000011	-10.050000000000029	0	0	0
16.100000000000009	-10.050000000000029	0	0	0
18.800000000000022	-18.450000000000031	0	0	0
16.100000000000019	-18.450000000000031	0	0	0
18.800000000000022	-14.25000000000003	0	0	0
16.100000000000019	-14.25000000000003	0	0	0
21.600000000000023	-18.450000000000031	0	0	0
18.90000000000002	-18.450000000000031	0	0	0
30	-5.8500000000000236	0	0	0
27.299999999999997	-5.8500000000000236	0	0	0
27.20000000000001	-14.25000000000002	0	0	0
24.500000000000007	-14.25000000000002	0	0	0
16.000000000000021	-18.450000000000031	0	0	0
13.300000000000018	-18.450000000000031	0	0	0
16.000000000000011	-14.25000000000003	0	0	0
13.300000000000008	-14.25000000000003	0	0	0
27.200000000000021	-18.450000000000031	0	0	0
24.500000000000018	-18.450000000000031	0	0	0
21.600000000000023	-14.25000000000003	0	0	0
18.90000000000002	-14.25000000000003	0	0	0
16	-5.8500000000000352	0	0	0
13.299999999999999	-5.8500000000000352	0	0	0
13.200000000000001	-5.8500000000000361	0	0	0
10.499999999999998	-5.8500000000000361	0	0	0
13.200000000000012	-14.250000000000041	0	0	0
10.500000000000009	-14.250000000000041	0	0	0
13.200000000000012	-10.05000000000004	0	0	0
10.500000000000009	-10.05000000000004	0	0	0
10.400000000000015	-14.250000000000041	0	0	0
7.7000000000000117	-14.250000000000041	0	0	0
16.000000000000011	-10.050000000000029	0	0	0
13.300000000000008	-10.050000000000029	0	0	0
13.200000000000021	-18.450000000000038	0	0	0
10.500000000000018	-18.450000000000038	0	0	0
10.400000000000022	-18.450000000000038	0	0	0
7.7000000000000188	-18.450000000000038	0	0	0
10.400000000000013	-10.05000000000004	0	0	0
7.7000000000000099	-10.05000000000004	0	0	0
10.400000000000009	-5.8500000000000387	0	0	0
7.7000000000000064	-5.8500000000000387	0	0	0
7.6000000000000103	-10.05000000000004	0	0	0
4.9000000000000092	-10.05000000000004	0	0	0
7.6000000000000085	-5.8500000000000423	0	0	0
4.9000000000000057	-5.8500000000000423	0	0	0
4.8000000000000078	-5.8500000000000441	0	0	0
2.1000000000000059	-5.8500000000000441	0	0	0
4.8000000000000114	-10.05000000000004	0	0	0
2.1000000000000099	-10.05000000000004	0	0	0
4.8000000000000158	-14.250000000000041	0	0	0
2.1000000000000139	-14.250000000000041	0	0	0
7.6000000000000192	-18.450000000000038	0	0	0
4.9000000000000181	-18.450000000000038	0	0	0
4.8000000000000211	-18.450000000000038	0	0	0
2.1000000000000192	-18.450000000000038	0	0	0
7.6000000000000156	-14.250000000000041	0	0	0
4.9000000000000146	-14.250000000000041	0	0	0
2.0000000000000089	-5.8500000000000449	0	0	0
-0.69999999999999307	-5.8500000000000449	0	0	0
2.0000000000000129	-10.05000000000005	0	0	0
-0.69999999999998919	-10.05000000000005	0	0	0
-0.79999999999999005	-5.8500000000000476	0	0	0
-3.499999999999992	-5.8500000000000476	0	0	0
2.0000000000000173	-14.250000000000041	0	0	0
-0.69999999999998475	-14.250000000000041	0	0	0
-3.5999999999999903	-5.8500000000000512	0	0	0
-6.2999999999999918	-5.8500000000000512	0	0	0
-0.79999999999998606	-10.05000000000005	0	0	0
-3.499999999999988	-10.05000000000005	0	0	0
2.0000000000000213	-18.450000000000038	0	0	0
-0.69999999999998042	-18.450000000000038	0	0	0
-3.5999999999999859	-10.05000000000005	0	0	0
-6.2999999999999883	-10.05000000000005	0	0	0
-0.79999999999998206	-14.25000000000005	0	0	0
-3.499999999999984	-14.25000000000005	0	0	0
-3.5999999999999823	-14.25000000000005	0	0	0
-6.2999999999999847	-14.25000000000005	0	0	0
-0.79999999999997806	-18.450000000000049	0	0	0
-3.49999999999998	-18.450000000000049	0	0	0
-3.599999999999977	-18.450000000000049	0	0	0
-6.2999999999999794	-18.450000000000049	0	0	0
-6.3999999999999897	-5.850000000000052	0	0	0
-9.0999999999999925	-5.850000000000052	0	0	0
-6.3999999999999861	-10.05000000000005	0	0	0
-9.0999999999999872	-10.05000000000005	0	0	0
-9.1999999999999886	-5.8500000000000538	0	0	0
-11.899999999999991	-5.8500000000000538	0	0	0
-6.3999999999999826	-14.25000000000005	0	0	0
-9.0999999999999854	-14.25000000000005	0	0	0
-11.999999999999989	-5.8500000000000574	0	0	0
-14.699999999999992	-5.8500000000000574	0	0	0
-6.3999999999999773	-18.450000000000049	0	0	0
-9.0999999999999783	-18.450000000000049	0	0	0
-9.199999999999978	-14.25000000000006	0	0	0
-11.899999999999981	-14.25000000000006	0	0	0
-11.999999999999989	-10.050000000000059	0	0	0
-14.699999999999992	-10.050000000000059	0	0	0
-9.199999999999978	-18.450000000000049	0	0	0
-11.899999999999981	-18.450000000000049	0	0	0
-9.1999999999999886	-10.050000000000059	0	0	0
-11.899999999999991	-10.050000000000059	0	0	0
-11.999999999999979	-14.25000000000006	0	0	0
-14.699999999999982	-14.25000000000006	0	0	0
-14.79999999999999	-5.85000000000006	0	0	0
-17.499999999999993	-5.85000000000006	0	0	0
-14.79999999999999	-10.050000000000059	0	0	0
-17.499999999999993	-10.050000000000059	0	0	0
-11.999999999999979	-18.450000000000049	0	0	0
-14.699999999999982	-18.450000000000049	0	0	0
-17.599999999999987	-5.8500000000000609	0	0	0
-20.29999999999999	-5.8500000000000609	0	0	0
-14.799999999999979	-14.25000000000006	0	0	0
-17.499999999999982	-14.25000000000006	0	0	0
-17.599999999999987	-10.050000000000059	0	0	0
-20.29999999999999	-10.050000000000059	0	0	0
-14.799999999999979	-18.45000000000006	0	0	0
-17.499999999999982	-18.45000000000006	0	0	0
-17.59999999999998	-14.25000000000006	0	0	0
-20.299999999999983	-14.25000000000006	0	0	0
-17.59999999999998	-18.45000000000006	0	0	0
-20.299999999999983	-18.45000000000006	0	0	0
-20.399999999999988	-5.8500000000000627	0	0	0
-23.099999999999991	-5.8500000000000627	0	0	0
-20.399999999999988	-10.050000000000059	0	0	0
-23.099999999999991	-10.050000000000059	0	0	0
-23.199999999999989	-5.8500000000000236	0	0	0
-25.899999999999991	-5.8500000000000236	0	0	0
-20.399999999999977	-18.45000000000006	0	0	0
-23.09999999999998	-18.45000000000006	0	0	0
-23.199999999999978	-14.250000000000069	0	0	0
-25.899999999999981	-14.250000000000069	0	0	0
-23.199999999999978	-18.45000000000007	0	0	0
-25.899999999999981	-18.45000000000007	0	0	0
-20.399999999999977	-14.25000000000006	0	0	0
-23.09999999999998	-14.25000000000006	0	0	0
-31.825000000000021	-18.100000000000058	0	0	0
-41.175000000000018	-18.100000000000058	0	0	0
-23.199999999999989	-10.050000000000059	0	0	0
-25.899999999999991	-10.050000000000059	0	0	0
18.800000000000022	-27.150000000000059	0	0	0
16.100000000000019	-27.150000000000059	0	0	0
21.60000000000003	-27.150000000000059	0	0	0
18.900000000000027	-27.150000000000059	0	0	0
24.400000000000041	-35.550000000000061	0	0	0
21.700000000000038	-35.550000000000061	0	0	0
24.400000000000031	-31.350000000000058	0	0	0
21.700000000000028	-31.350000000000058	0	0	0
24.400000000000031	-27.150000000000059	0	0	0
21.700000000000028	-27.150000000000059	0	0	0
27.200000000000031	-31.350000000000058	0	0	0
24.500000000000028	-31.350000000000058	0	0	0
27.200000000000031	-27.150000000000059	0	0	0
24.500000000000028	-27.150000000000059	0	0	0
30.000000000000043	-39.750000000000057	0	0	0
27.30000000000004	-39.750000000000057	0	0	0
30.000000000000043	-35.550000000000061	0	0	0
27.30000000000004	-35.550000000000061	0	0	0
30.000000000000032	-31.350000000000058	0	0	0
27.300000000000029	-31.350000000000058	0	0	0
21.60000000000003	-31.350000000000058	0	0	0
18.900000000000027	-31.350000000000058	0	0	0
24.400000000000041	-39.750000000000057	0	0	0
21.700000000000038	-39.750000000000057	0	0	0
18.800000000000033	-31.350000000000058	0	0	0
16.10000000000003	-31.350000000000058	0	0	0
18.80000000000004	-39.750000000000057	0	0	0
16.100000000000037	-39.750000000000057	0	0	0
18.80000000000004	-35.550000000000061	0	0	0
16.100000000000037	-35.550000000000061	0	0	0
21.600000000000041	-39.750000000000057	0	0	0
18.900000000000038	-39.750000000000057	0	0	0
30.000000000000021	-27.150000000000059	0	0	0
27.300000000000018	-27.150000000000059	0	0	0
27.200000000000042	-35.550000000000061	0	0	0
24.500000000000039	-35.550000000000061	0	0	0
16.000000000000039	-39.750000000000057	0	0	0
13.300000000000038	-39.750000000000057	0	0	0
16.000000000000039	-35.550000000000061	0	0	0
13.300000000000038	-35.550000000000061	0	0	0
27.200000000000042	-39.750000000000057	0	0	0
24.500000000000039	-39.750000000000057	0	0	0
21.600000000000041	-35.550000000000061	0	0	0
18.900000000000038	-35.550000000000061	0	0	0
16.000000000000021	-27.150000000000059	0	0	0
13.300000000000018	-27.150000000000059	0	0	0
13.200000000000021	-27.150000000000059	0	0	0
10.500000000000018	-27.150000000000059	0	0	0
13.200000000000042	-35.550000000000061	0	0	0
10.500000000000039	-35.550000000000061	0	0	0
13.200000000000031	-31.350000000000058	0	0	0
10.500000000000028	-31.350000000000058	0	0	0
10.400000000000039	-35.550000000000061	0	0	0
7.7000000000000366	-35.550000000000061	0	0	0
16.000000000000032	-31.350000000000058	0	0	0
13.300000000000029	-31.350000000000058	0	0	0
13.200000000000042	-39.750000000000057	0	0	0
10.500000000000039	-39.750000000000057	0	0	0
10.400000000000045	-39.750000000000057	0	0	0
7.7000000000000419	-39.750000000000057	0	0	0
10.400000000000034	-31.350000000000058	0	0	0
7.7000000000000313	-31.350000000000058	0	0	0
10.400000000000029	-27.150000000000059	0	0	0
7.7000000000000259	-27.150000000000059	0	0	0
7.6000000000000334	-31.350000000000058	0	0	0
4.9000000000000323	-31.350000000000058	0	0	0
7.6000000000000263	-27.150000000000059	0	0	0
4.9000000000000252	-27.150000000000059	0	0	0
4.8000000000000274	-27.150000000000059	0	0	0
2.1000000000000258	-27.150000000000059	0	0	0
4.8000000000000345	-31.350000000000058	0	0	0
2.1000000000000321	-31.350000000000058	0	0	0
4.800000000000038	-35.550000000000061	0	0	0
2.1000000000000361	-35.550000000000061	0	0	0
7.6000000000000423	-39.750000000000057	0	0	0
4.9000000000000412	-39.750000000000057	0	0	0
4.8000000000000433	-39.750000000000057	0	0	0
2.1000000000000409	-39.750000000000057	0	0	0
7.6000000000000387	-35.550000000000061	0	0	0
4.9000000000000359	-35.550000000000061	0	0	0
2.0000000000000284	-27.150000000000059	0	0	0
-0.69999999999997331	-27.150000000000059	0	0	0
2.0000000000000351	-31.350000000000058	0	0	0
-0.69999999999996698	-31.350000000000058	0	0	0
-0.79999999999997007	-27.150000000000059	0	0	0
-3.499999999999972	-27.150000000000059	0	0	0
2.0000000000000395	-35.550000000000061	0	0	0
-0.69999999999996254	-35.550000000000061	0	0	0
-3.5999999999999699	-27.150000000000059	0	0	0
-6.2999999999999723	-27.150000000000059	0	0	0
-0.79999999999996385	-31.350000000000058	0	0	0
-3.4999999999999658	-31.350000000000058	0	0	0
2.0000000000000435	-39.750000000000057	0	0	0
-0.69999999999995821	-39.750000000000057	0	0	0
-3.5999999999999637	-31.350000000000058	0	0	0
-6.2999999999999652	-31.350000000000058	0	0	0
-0.79999999999995985	-35.550000000000061	0	0	0
-3.4999999999999618	-35.550000000000061	0	0	0
-3.5999999999999601	-35.550000000000061	0	0	0
-6.2999999999999616	-35.550000000000061	0	0	0
-0.79999999999995497	-39.750000000000057	0	0	0
-3.4999999999999569	-39.750000000000057	0	0	0
-3.5999999999999548	-39.750000000000057	0	0	0
-6.2999999999999563	-39.750000000000057	0	0	0
-6.3999999999999702	-27.150000000000059	0	0	0
-9.099999999999973	-27.150000000000059	0	0	0
-6.3999999999999648	-31.350000000000058	0	0	0
-9.0999999999999677	-31.350000000000058	0	0	0
-9.1999999999999691	-27.150000000000059	0	0	0
-11.899999999999972	-27.150000000000059	0	0	0
-6.3999999999999595	-35.550000000000061	0	0	0
-9.0999999999999606	-35.550000000000061	0	0	0
-11.999999999999968	-27.150000000000059	0	0	0
-14.699999999999971	-27.150000000000059	0	0	0
-6.3999999999999559	-39.750000000000057	0	0	0
-9.0999999999999588	-39.750000000000057	0	0	0
-9.1999999999999584	-35.550000000000061	0	0	0
-11.899999999999961	-35.550000000000061	0	0	0
-11.999999999999959	-31.350000000000058	0	0	0
-14.699999999999962	-31.350000000000058	0	0	0
-9.1999999999999584	-39.750000000000057	0	0	0
-11.899999999999961	-39.750000000000057	0	0	0
-9.1999999999999584	-31.350000000000058	0	0	0
-11.899999999999961	-31.350000000000058	0	0	0
-11.999999999999959	-35.550000000000061	0	0	0
-14.699999999999962	-35.550000000000061	0	0	0
-14.799999999999969	-27.150000000000059	0	0	0
-17.499999999999972	-27.150000000000059	0	0	0
-14.799999999999958	-31.350000000000058	0	0	0
-17.499999999999961	-31.350000000000058	0	0	0
-11.999999999999948	-39.750000000000057	0	0	0
-14.699999999999951	-39.750000000000057	0	0	0
-17.599999999999969	-27.150000000000059	0	0	0
-20.299999999999972	-27.150000000000059	0	0	0
-14.799999999999958	-35.550000000000061	0	0	0
-17.499999999999961	-35.550000000000061	0	0	0
-17.599999999999969	-31.350000000000058	0	0	0
-20.299999999999972	-31.350000000000058	0	0	0
-14.799999999999947	-39.750000000000057	0	0	0
-17.49999999999995	-39.750000000000057	0	0	0
-17.599999999999959	-35.550000000000061	0	0	0
-20.299999999999962	-35.550000000000061	0	0	0
-17.599999999999959	-39.750000000000057	0	0	0
-20.299999999999962	-39.750000000000057	0	0	0
-20.39999999999997	-27.150000000000059	0	0	0
-23.099999999999973	-27.150000000000059	0	0	0
-20.39999999999997	-31.350000000000058	0	0	0
-23.099999999999973	-31.350000000000058	0	0	0
-23.19999999999996	-27.15000000000007	0	0	0
-25.899999999999963	-27.15000000000007	0	0	0
-20.399999999999959	-39.750000000000057	0	0	0
-23.099999999999962	-39.750000000000057	0	0	0
-23.19999999999996	-35.550000000000061	0	0	0
-25.899999999999963	-35.550000000000061	0	0	0
-23.19999999999996	-39.750000000000057	0	0	0
-25.899999999999963	-39.750000000000057	0	0	0
-20.39999999999997	-35.550000000000061	0	0	0
-23.099999999999973	-35.550000000000061	0	0	0
-31.824999999999957	-39.400000000000091	0	0	0
-41.174999999999955	-39.400000000000091	0	0	0
-23.19999999999996	-31.350000000000058	0	0	0
-25.899999999999963	-31.350000000000058	0	0	0
[NumSegments] = 54
1	518	-1	0	0	0	0
2	3	-1	0	0	0	0
3	0	-1	0	0	0	0
5	356	-1	0	0	0	0
6	7	-1	0	0	0	0
7	4	-1	0	0	0	0
9	1	-1	0	0	0	0
8	24	-1	0	0	0	0
0	10	-1	0	0	0	0
10	8	-1	0	0	0	0
12	30	-1	0	0	0	0
13	14	-1	0	0	0	0
14	11	-1	0	0	0	0
15	16	-1	0	0	0	0
16	17	-1	0	0	0	0
17	194	-1	0	0	0	0
18	15	-1	0	0	0	0
19	32	-1	0	0	0	0
15	20	-1	0	0	0	0
20	19	-1	0	0	0	0
21	22	-1	0	0	0	0
22	23	-1	0	0	0	0
24	9	-1	0	0	0	0
24	25	-1	0	0	0	0
26	12	-1	0	0	0	0
20	26	-1	0	0	0	0
11	23	-1	0	0	0	0
23	27	-1	0	0	0	0
27	19	-1	0	0	0	0
27	230	-1	0	0	0	0
28	5	-1	0	0	0	0
22	28	-1	0	0	0	0
4	25	-1	0	0	0	0
25	29	-1	0	0	0	0
29	21	-1	0	0	0	0
29	392	-1	0	0	0	0
31	13	-1	0	0	0	0
32	34	-1	0	0	0	0
34	36	-1	0	0	0	0
36	38	-1	0	0	0	0
38	16	-1	0	0	0	0
193	18	-1	0	0	0	0
195	196	-1	0	0	0	0
197	192	-1	0	0	0	0
212	21	-1	0	0	0	0
214	212	-1	0	0	0	0
216	214	-1	0	0	0	0
230	216	-1	0	0	0	0
357	6	-1	0	0	0	0
374	8	-1	0	0	0	0
376	374	-1	0	0	0	0
378	376	-1	0	0	0	0
392	378	-1	0	0	0	0
519	2	-1	0	0	0	0
[NumArcSegments] = 486
31	30	180	5	1	0	0	0	5
32	33	180	5	0	0	0	0	5
33	32	180	5	0	0	0	0	5
34	35	180	5	0	0	0	0	5
35	34	180	5	0	0	0	0	5
36	37	180	5	0	0	0	0	5
37	36	180	5	0	0	0	0	5
38	39	180	5	0	0	0	0	5
39	38	180	5	0	0	0	0	5
40	41	180	5	0	0	0	0	5
41	40	180	5	0	0	0	0	5
42	43	180	5	0	0	0	0	5
43	42	180	5	0	0	0	0	5
44	45	180	5	0	0	0	0	5
45	44	180	5	0	0	0	0	5
46	47	180	5	0	0	0	0	5
47	46	180	5	0	0	0	0	5
48	49	180	5	0	0	0	0	5
49	48	180	5	0	0	0	0	5
50	51	180	5	0	0	0	0	5
51	50	180	5	0	0	0	0	5
52	53	180	5	0	0	0	0	5
53	52	180	5	0	0	0	0	5
54	55	180	5	0	0	0	0	5
55	54	180	5	0	0	0	0	5
56	57	180	5	0	0	0	0	5
57	56	180	5	0	0	0	0	5
58	59	180	5	0	0	0	0	5
59	58	180	5	0	0	0	0	5
60	61	180	5	0	0	0	0	5
61	60	180	5	0	0	0	0	5
62	63	180	5	0	0	0	0	5
63	62	180	5	0	0	0	0	5
64	65	180	5	0	0	0	0	5
65	64	180	5	0	0	0	0	5
66	67	180	5	0	0	0	0	5
67	66	180	5	0	0	0	0	5
68	69	180	5	0	0	0	0	5
69	68	180	5	0	0	0	0	5
70	71	180	5	0	0	0	0	5
71	70	180	5	0	0	0	0	5
72	73	180	5	0	0	0	0	5
73	72	180	5	0	0	0	0	5
74	75	180	5	0	0	0	0	5
75	74	180	5	0	0	0	0	5
76	77	180	5	0	0	0	0	5
77	76	180	5	0	0	0	0	5
78	79	180	5	0	0	0	0	5
79	78	180	5	0	0	0	0	5
80	81	180	5	0	0	0	0	5
81	80	180	5	0	0	0	0	5
82	83	180	5	0	0	0	0	5
83	82	180	5	0	0	0	0	5
84	85	180	5	0	0	0	0	5
85	84	180	5	0	0	0	0	5
86	87	180	5	0	0	0	0	5
87	86	180	5	0	0	0	0	5
88	89	180	5	0	0	0	0	5
89	88	180	5	0	0	0	0	5
90	91	180	5	0	0	0	0	5
91	90	180	5	0	0	0	0	5
92	93	180	5	0	0	0	0	5
93	92	180	5	0	0	0	0	5
94	95	180	5	0	0	0	0	5
95	94	180	5	0	0	0	0	5
96	97	180	5	0	0	0	0	5
97	96	180	5	0	0	0	0	5
98	99	180	5	0	0	0	0	5
99	98	180	5	0	0	0	0	5
100	101	180	5	0	0	0	0	5
101	100	180	5	0	0	0	0	5
102	103	180	5	0	0	0	0	5
103	102	180	5	0	0	0	0	5
104	105	180	5	0	0	0	0	5
105	104	180	5	0	0	0	0	5
106	107	180	5	0	0	0	0	5
107	106	180	5	0	0	0	0	5
108	109	180	5	0	0	0	0	5
109	108	180	5	0	0	0	0	5
110	111	180	5	0	0	0	0	5
111	110	180	5	0	0	0	0	5
112	113	180	5	0	0	0	0	5
113	112	180	5	0	0	0	0	5
114	115	180	5	0	0	0	0	5
115	114	180	5	0	0	0	0	5
116	117	180	5	0	0	0	0	5
117	116	180	5	0	0	0	0	5
118	119	180	5	0	0	0	0	5
119	118	180	5	0	0	0	0	5
120	121	180	5	0	0	0	0	5
121	120	180	5	0	0	0	0	5
122	123	180	5	0	0	0	0	5
123	122	180	5	0	0	0	0	5
124	125	180	5	0	0	0	0	5
125	124	180	5	0	0	0	0	5
126	127	180	5	0	0	0	0	5
127	126	180	5	0	0	0	0	5
128	129	180	5	0	0	0	0	5
129	128	180	5	0	0	0	0	5
130	131	180	5	0	0	0	0	5
131	130	180	5	0	0	0	0	5
132	133	180	5	0	0	0	0	5
133	132	180	5	0	0	0	0	5
134	135	180	5	0	0	0	0	5
135	134	180	5	0	0	0	0	5
136	137	180	5	0	0	0	0	5
137	136	180	5	0	0	0	0	5
138	139	180	5	0	0	0	0	5
139	138	180	5	0	0	0	0	5
140	141	180	5	0	0	0	0	5
141	140	180	5	0	0	0	0	5
142	143	180	5	0	0	0	0	5
143	142	180	5	0	0	0	0	5
144	145	180	5	0	0	0	0	5
145	144	180	5	0	0	0	0	5
146	147	180	5	0	0	0	0	5
147	146	180	5	0	0	0	0	5
148	149	180	5	0	0	0	0	5
149	148	180	5	0	0	0	0	5
150	151	180	5	0	0	0	0	5
151	150	180	5	0	0	0	0	5
152	153	180	5	0	0	0	0	5
153	152	180	5	0	0	0	0	5
154	155	180	5	0	0	0	0	5
155	154	180	5	0	0	0	0	5
156	157	180	5	0	0	0	0	5
157	156	180	5	0	0	0	0	5
158	159	180	5	0	0	0	0	5
159	158	180	5	0	0	0	0	5
160	161	180	5	0	0	0	0	5
161	160	180	5	0	0	0	0	5
162	163	180	5	0	0	0	0	5
163	162	180	5	0	0	0	0	5
164	165	180	5	0	0	0	0	5
165	164	180	5	0	0	0	0	5
166	167	180	5	0	0	0	0	5
167	166	180	5	0	0	0	0	5
168	169	180	5	0	0	0	0	5
169	168	180	5	0	0	0	0	5
170	171	180	5	0	0	0	0	5
171	170	180	5	0	0	0	0	5
172	173	180	5	0	0	0	0	5
173	172	180	5	0	0	0	0	5
174	175	180	5	0	0	0	0	5
175	174	180	5	0	0	0	0	5
176	177	180	5	0	0	0	0	5
177	176	180	5	0	0	0	0	5
178	179	180	5	0	0	0	0	5
179	178	180	5	0	0	0	0	5
180	181	180	5	0	0	0	0	5
181	180	180	5	0	0	0	0	5
182	183	180	5	0	0	0	0	5
183	182	180	5	0	0	0	0	5
184	185	180	5	0	0	0	0	5
185	184	180	5	0	0	0	0	5
186	187	180	5	0	0	0	0	5
187	186	180	5	0	0	0	0	5
188	189	180	5	0	0	0	0	5
189	188	180	5	0	0	0	0	5
190	191	180	5	0	0	0	0	5
191	190	180	5	0	0	0	0	5
193	192	180	5	1	0	0	0	5
195	194	180	5	1	0	0	0	5
197	196	180	5	1	0	0	0	5
198	199	180	5	0	0	0	0	5
199	198	180	5	0	0	0	0	5
200	201	180	5	0	0	0	0	5
201	200	180	5	0	0	0	0	5
202	203	180	5	0	0	0	0	5
203	202	180	5	0	0	0	0	5
204	205	180	5	0	0	0	0	5
205	204	180	5	0	0	0	0	5
206	207	180	5	0	0	0	0	5
207	206	180	5	0	0	0	0	5
208	209	180	5	0	0	0	0	5
209	208	180	5	0	0	0	0	5
210	211	180	5	0	0	0	0	5
211	210	180	5	0	0	0	0	5
212	213	180	5	0	0	0	0	5
213	212	180	5	0	0	0	0	5
214	215	180	5	0	0	0	0	5
215	214	180	5	0	0	0	0	5
216	217	180	5	0	0	0	0	5
217	216	180	5	0	0	0	0	5
218	219	180	5	0	0	0	0	5
219	218	180	5	0	0	0	0	5
220	221	180	5	0	0	0	0	5
221	220	180	5	0	0	0	0	5
222	223	180	5	0	0	0	0	5
223	222	180	5	0	0	0	0	5
224	225	180	5	0	0	0	0	5
225	224	180	5	0	0	0	0	5
226	227	180	5	0	0	0	0	5
227	226	180	5	0	0	0	0	5
228	229	180	5	0	0	0	0	5
229	228	180	5	0	0	0	0	5
230	231	180	5	0	0	0	0	5
231	230	180	5	0	0	0	0	5
232	233	180	5	0	0	0	0	5
233	232	180	5	0	0	0	0	5
234	235	180	5	0	0	0	0	5
235	234	180	5	0	0	0	0	5
236	237	180	5	0	0	0	0	5
237	236	180	5	0	0	0	0	5
238	239	180	5	0	0	0	0	5
239	238	180	5	0	0	0	0	5
240	241	180	5	0	0	0	0	5
241	240	180	5	0	0	0	0	5
242	243	180	5	0	0	0	0	5
243	242	180	5	0	0	0	0	5
244	245	180	5	0	0	0	0	5
245	244	180	5	0	0	0	0	5
246	247	180	5	0	0	0	0	5
247	246	180	5	0	0	0	0	5
248	249	180	5	0	0	0	0	5
249	248	180	5	0	0	0	0	5