[Format]      =  1
[Precision]   =  1e-008
[MinAngle]    =  30
[DoSmartMesh] =  1
[Depth]       =  1000
[LengthUnits] =  millimeters
[ProblemType] =  planar
[Coordinates] =  cartesian
[PrevSoln] = ""
[dT] = 0
[Comment]     =  "Add comments here."
[PointProps]   = 0
[BdryProps]   = 1
  <BeginBdry>
    <BdryName> = "5DegC"
    <BdryType> = 0
    <Tset> = 278
    <qs>   = 0
    <beta> = 0
    <h>    = 0
    <Tinf> = 0
  <EndBdry>
[BlockProps]  = 4
  <BeginBlock>
    <BlockName> = "Copper10AWG"
    <Kx> = 385
    <Ky> = 385
    <Kt> = 3.3799999999999999
    <qv> = 605730
  <EndBlock>
  <BeginBlock>
    <BlockName> = "Aluminum"
    <Kx> = 167
    <Ky> = 167
    <Kt> = 3.3700000000000001
    <qv> = 0
  <EndBlock>
  <BeginBlock>
    <BlockName> = "SiC Casting"
    <Kx> = 4.2999999999999998
    <Ky> = 4.2999999999999998
    <Kt> = 1.75
    <qv> = 0
  <EndBlock>
  <BeginBlock>
    <BlockName> = "1.5mmWire"
    <Kx> = 387
    <Ky> = 387
    <Kt> = 3.3799999999999999
    <qv> = 6359040
  <EndBlock>
[ConductorProps]  = 0
[NumPoints] = 603
-29.99999999999995	-39.40000000000007	0	0	0
-31.824999999999957	-39.400000000000091	0	0	0
-42.999999999999979	-39.400000000000098	0	0	0
-42.999999999999929	-45.600000000000101	0	0	0
-29.999999999999961	-45.600000000000087	0	0	0
-30.000000000000021	-18.100000000000058	0	0	0
-31.825000000000021	-18.100000000000058	0	0	0
-43.000000000000028	-18.100000000000069	0	0	0
-43.000000000000028	-24.300000000000072	0	0	0
-30.000000000000011	-24.300000000000072	0	0	0
-29.999999999999961	-42.600000000000087	0	0	0
30.000000000000039	-42.600000000000058	0	0	0
-26.549999999999962	-42.600000000000087	0	0	0
30.000000000000039	-45.600000000000051	0	0	0
-30	3.2000000000000051	0	0	0
-31.824999999999999	3.2000000000000091	0	0	0
-43	3.2000000000000051	0	0	0
-43	-3.0000000000000062	0	0	0
-30	-3.000000000000004	0	0	0
-26.550000000000011	18.29999999999999	0	0	0
30	18.29999999999999	0	0	0
30	24.300000000000011	0	0	0
22.649999999999991	24.300000000000011	0	0	0
-26.550000000000011	24.300000000000001	0	0	0
30	1.55e-014	0	0	0
30	2.8500000000000179	0	0	0
-26.550000000000011	4.3999999999999997e-015	0	0	0
30.000000000000021	-21.300000000000029	0	0	0
-26.549999999999979	-21.300000000000061	0	0	0
-26.550000000000001	-3.0000000000000071	0	0	0
-26.549999999999979	-24.300000000000072	0	0	0
-30	0	0	0	0
30	-2.9999999999999849	0	0	0
30	-5.8500000000000236	0	0	0
-30.000000000000021	-21.300000000000061	0	0	0
30.000000000000028	-24.300000000000029	0	0	0
30.000000000000021	-27.150000000000059	0	0	0
-41.174999999999997	3.2000000000000091	0	0	0
30	7.0500000000000176	0	0	0
29.999999999999993	11.250000000000011	0	0	0
29.999999999999993	15.45000000000001	0	0	0
-19.20000000000001	24.300000000000001	0	0	0
13.349999999999989	24.300000000000011	0	0	0
6.3749999999999893	24.300000000000001	0	0	0
-2.9250000000000114	24.300000000000001	0	0	0
-9.9000000000000092	24.300000000000001	0	0	0
30.000000000000021	-18.450000000000021	0	0	0
30.000000000000011	-14.25000000000002	0	0	0
30.000000000000011	-10.05000000000002	0	0	0
-41.175000000000018	-18.100000000000058	0	0	0
30.000000000000043	-39.750000000000057	0	0	0
30.000000000000043	-35.550000000000061	0	0	0
30.000000000000032	-31.350000000000058	0	0	0
-41.174999999999955	-39.400000000000091	0	0	0
-26.549999999999962	-45.600000000000058	0	0	0
-26.549999999999962	-48.100000000000087	0	0	0
30.00000000000005	-48.100000000000051	0	0	0
30.000000000000014	-16.031818181818206	0	0	0
30.000000000000011	-12.150000000000007	0	0	0
30.000000000000007	-8.2681818181818603	0	0	0
30.000000000000014	-15.76633237822351	0	0	0
30.000000000000011	-13.575000000000026	0	0	0
30.000000000000036	-31.632978723404321	0	0	0
27.299999999999997	2.8500000000000179	0	0	0
27.299999999999997	7.0500000000000176	0	0	0
27.29999999999999	11.250000000000011	0	0	0
27.29999999999999	15.45000000000001	0	0	0
27.199999999999992	15.45000000000001	0	0	0
24.499999999999989	15.45000000000001	0	0	0
27.199999999999992	11.250000000000011	0	0	0
24.499999999999989	11.250000000000011	0	0	0
27.200000000000003	7.0500000000000176	0	0	0
24.5	7.0500000000000176	0	0	0
27.200000000000003	2.850000000000017	0	0	0
24.5	2.850000000000017	0	0	0
24.399999999999991	15.45000000000001	0	0	0
21.699999999999989	15.45000000000001	0	0	0
24.399999999999991	11.250000000000011	0	0	0
21.699999999999989	11.250000000000011	0	0	0
24.400000000000002	7.0500000000000167	0	0	0
21.699999999999999	7.0500000000000167	0	0	0
24.400000000000002	2.850000000000017	0	0	0
21.699999999999999	2.850000000000017	0	0	0
21.599999999999991	15.45000000000001	0	0	0
18.899999999999988	15.45000000000001	0	0	0
21.599999999999991	11.250000000000011	0	0	0
18.899999999999988	11.250000000000011	0	0	0
21.600000000000001	7.0500000000000167	0	0	0
18.899999999999999	7.0500000000000167	0	0	0
21.600000000000001	2.850000000000017	0	0	0
18.899999999999999	2.850000000000017	0	0	0
18.79999999999999	15.45000000000001	0	0	0
16.099999999999987	15.45000000000001	0	0	0
18.79999999999999	11.250000000000011	0	0	0
16.099999999999987	11.250000000000011	0	0	0
18.800000000000001	7.0500000000000167	0	0	0
16.099999999999998	7.0500000000000167	0	0	0
18.800000000000001	2.850000000000017	0	0	0
16.099999999999998	2.850000000000017	0	0	0
15.999999999999991	15.45000000000001	0	0	0
13.299999999999988	15.45000000000001	0	0	0
15.999999999999991	11.250000000000011	0	0	0
13.299999999999988	11.250000000000011	0	0	0
16	7.0500000000000158	0	0	0
13.299999999999999	7.0500000000000158	0	0	0
16	2.8500000000000161	0	0	0
13.299999999999999	2.8500000000000161	0	0	0
13.199999999999992	15.45000000000001	0	0	0
10.499999999999989	15.45000000000001	0	0	0
13.199999999999992	11.250000000000011	0	0	0
10.499999999999989	11.250000000000011	0	0	0
13.200000000000001	7.0500000000000158	0	0	0
10.499999999999998	7.0500000000000158	0	0	0
13.200000000000001	2.8500000000000152	0	0	0
10.499999999999998	2.8500000000000152	0	0	0
10.399999999999997	15.45000000000001	0	0	0
7.699999999999994	15.45000000000001	0	0	0
10.399999999999997	11.250000000000011	0	0	0
7.699999999999994	11.250000000000011	0	0	0
10.400000000000002	7.0500000000000158	0	0	0
7.6999999999999993	7.0500000000000158	0	0	0
10.400000000000002	2.8500000000000152	0	0	0
7.6999999999999993	2.8500000000000152	0	0	0
7.5999999999999961	15.45000000000001	0	0	0
4.8999999999999932	15.45000000000001	0	0	0
7.5999999999999961	11.250000000000011	0	0	0
4.8999999999999932	11.250000000000011	0	0	0
7.6000000000000014	7.0500000000000158	0	0	0
4.8999999999999986	7.0500000000000158	0	0	0
7.6000000000000014	2.8500000000000152	0	0	0
4.8999999999999986	2.8500000000000152	0	0	0
4.799999999999998	15.45000000000001	0	0	0
2.0999999999999961	15.45000000000001	0	0	0
4.799999999999998	11.250000000000011	0	0	0
2.0999999999999961	11.250000000000011	0	0	0
4.8000000000000025	7.050000000000014	0	0	0
2.1000000000000001	7.050000000000014	0	0	0
4.8000000000000025	2.8500000000000139	0	0	0
2.1000000000000001	2.8500000000000139	0	0	0
1.999999999999996	15.45000000000001	0	0	0
-0.70000000000000584	15.45000000000001	0	0	0
1.999999999999996	11.250000000000011	0	0	0
-0.70000000000000584	11.250000000000011	0	0	0
2.0000000000000004	7.050000000000014	0	0	0
-0.70000000000000151	7.050000000000014	0	0	0
2.0000000000000004	2.8500000000000139	0	0	0
-0.70000000000000151	2.8500000000000139	0	0	0
-0.80000000000000204	15.45000000000001	0	0	0
-3.500000000000004	15.45000000000001	0	0	0
-0.80000000000000204	11.250000000000011	0	0	0
-3.500000000000004	11.250000000000011	0	0	0
-0.79999999999999716	7.050000000000014	0	0	0
-3.4999999999999991	7.050000000000014	0	0	0
-0.79999999999999716	2.8500000000000139	0	0	0
-3.4999999999999991	2.8500000000000139	0	0	0
-3.6000000000000001	15.45000000000001	0	0	0
-6.3000000000000025	15.45000000000001	0	0	0
-3.6000000000000001	11.250000000000011	0	0	0
-6.3000000000000025	11.250000000000011	0	0	0
-3.5999999999999948	7.050000000000014	0	0	0
-6.2999999999999972	7.050000000000014	0	0	0
-3.5999999999999948	2.8500000000000139	0	0	0
-6.2999999999999972	2.8500000000000139	0	0	0
-6.4000000000000021	15.45000000000001	0	0	0
-9.1000000000000032	15.45000000000001	0	0	0
-6.4000000000000021	11.250000000000011	0	0	0
-9.1000000000000032	11.250000000000011	0	0	0
-6.3999999999999986	7.050000000000014	0	0	0
-9.0999999999999996	7.050000000000014	0	0	0
-6.3999999999999986	2.850000000000013	0	0	0
-9.0999999999999996	2.850000000000013	0	0	0
-9.1999999999999993	15.45000000000001	0	0	0
-11.900000000000002	15.45000000000001	0	0	0
-9.1999999999999993	11.250000000000011	0	0	0
-11.900000000000002	11.250000000000011	0	0	0
-9.1999999999999886	7.050000000000014	0	0	0
-11.899999999999991	7.050000000000014	0	0	0
-9.1999999999999886	2.8500000000000121	0	0	0
-11.899999999999991	2.8500000000000121	0	0	0
-11.999999999999998	15.45000000000001	0	0	0
-14.700000000000001	15.45000000000001	0	0	0
-11.999999999999998	11.250000000000011	0	0	0
-14.700000000000001	11.250000000000011	0	0	0
-11.999999999999989	7.0500000000000131	0	0	0
-14.699999999999992	7.0500000000000131	0	0	0
-11.999999999999989	2.8500000000000121	0	0	0
-14.699999999999992	2.8500000000000121	0	0	0
-14.799999999999997	15.45000000000001	0	0	0
-17.5	15.45000000000001	0	0	0
-14.799999999999997	11.250000000000011	0	0	0
-17.5	11.250000000000011	0	0	0
-14.799999999999997	7.0500000000000131	0	0	0
-17.5	7.0500000000000131	0	0	0
-14.799999999999997	2.8500000000000121	0	0	0
-17.5	2.8500000000000121	0	0	0
-17.599999999999998	15.45000000000001	0	0	0
-20.300000000000001	15.45000000000001	0	0	0
-17.599999999999998	11.250000000000011	0	0	0
-20.300000000000001	11.250000000000011	0	0	0
-17.599999999999998	7.0500000000000131	0	0	0
-20.300000000000001	7.0500000000000131	0	0	0
-17.599999999999998	2.8500000000000121	0	0	0
-20.300000000000001	2.8500000000000121	0	0	0
-20.399999999999999	15.45000000000001	0	0	0
-23.100000000000001	15.45000000000001	0	0	0
-20.399999999999999	11.250000000000011	0	0	0
-23.100000000000001	11.250000000000011	0	0	0
-20.399999999999988	7.0500000000000114	0	0	0
-23.099999999999991	7.0500000000000114	0	0	0
-20.399999999999988	2.8500000000000121	0	0	0
-23.099999999999991	2.8500000000000121	0	0	0
-23.199999999999999	15.45000000000001	0	0	0
-25.900000000000002	15.45000000000001	0	0	0
-23.199999999999999	11.250000000000011	0	0	0
-25.900000000000002	11.250000000000011	0	0	0
-23.199999999999999	7.0500000000000114	0	0	0
-25.900000000000002	7.0500000000000114	0	0	0
-23.199999999999999	2.8500000000000112	0	0	0
-25.900000000000002	2.8500000000000112	0	0	0
18.800000000000001	-5.8500000000000334	0	0	0
16.099999999999998	-5.8500000000000334	0	0	0
21.600000000000012	-5.8500000000000298	0	0	0
18.900000000000009	-5.8500000000000298	0	0	0
24.400000000000013	-14.25000000000003	0	0	0
21.70000000000001	-14.25000000000003	0	0	0
24.400000000000013	-10.050000000000029	0	0	0
21.70000000000001	-10.050000000000029	0	0	0
24.400000000000013	-5.8500000000000281	0	0	0
21.70000000000001	-5.8500000000000281	0	0	0
27.20000000000001	-10.050000000000029	0	0	0
24.500000000000007	-10.050000000000029	0	0	0
27.20000000000001	-5.8500000000000263	0	0	0
24.500000000000007	-5.8500000000000263	0	0	0
27.300000000000018	-18.450000000000021	0	0	0
27.300000000000008	-14.25000000000002	0	0	0
27.300000000000008	-10.05000000000002	0	0	0
21.600000000000023	-10.050000000000029	0	0	0
18.90000000000002	-10.050000000000029	0	0	0
24.40000000000002	-18.450000000000031	0	0	0
21.700000000000017	-18.450000000000031	0	0	0
18.800000000000011	-10.050000000000029	0	0	0
16.100000000000009	-10.050000000000029	0	0	0
18.800000000000022	-18.450000000000031	0	0	0
16.100000000000019	-18.450000000000031	0	0	0
18.800000000000022	-14.25000000000003	0	0	0
16.100000000000019	-14.25000000000003	0	0	0
21.600000000000023	-18.450000000000031	0	0	0
18.90000000000002	-18.450000000000031	0	0	0
27.299999999999997	-5.8500000000000236	0	0	0
27.20000000000001	-14.25000000000002	0	0	0
24.500000000000007	-14.25000000000002	0	0	0
16.000000000000021	-18.450000000000031	0	0	0
13.300000000000018	-18.450000000000031	0	0	0
16.000000000000011	-14.25000000000003	0	0	0
13.300000000000008	-14.25000000000003	0	0	0
27.200000000000021	-18.450000000000031	0	0	0
24.500000000000018	-18.450000000000031	0	0	0
21.600000000000023	-14.25000000000003	0	0	0
18.90000000000002	-14.25000000000003	0	0	0
16	-5.8500000000000352	0	0	0
13.299999999999999	-5.8500000000000352	0	0	0
13.200000000000001	-5.8500000000000361	0	0	0
10.499999999999998	-5.8500000000000361	0	0	0
13.200000000000012	-14.250000000000041	0	0	0
10.500000000000009	-14.250000000000041	0	0	0
13.200000000000012	-10.05000000000004	0	0	0
10.500000000000009	-10.05000000000004	0	0	0
10.400000000000015	-14.250000000000041	0	0	0
7.7000000000000117	-14.250000000000041	0	0	0
16.000000000000011	-10.050000000000029	0	0	0
13.300000000000008	-10.050000000000029	0	0	0
13.200000000000021	-18.450000000000038	0	0	0
10.500000000000018	-18.450000000000038	0	0	0
10.400000000000022	-18.450000000000038	0	0	0
7.7000000000000188	-18.450000000000038	0	0	0
10.400000000000013	-10.05000000000004	0	0	0
7.7000000000000099	-10.05000000000004	0	0	0
10.400000000000009	-5.8500000000000387	0	0	0
7.7000000000000064	-5.8500000000000387	0	0	0
7.6000000000000103	-10.05000000000004	0	0	0
4.9000000000000092	-10.05000000000004	0	0	0
7.6000000000000085	-5.8500000000000423	0	0	0
4.9000000000000057	-5.8500000000000423	0	0	0
4.8000000000000078	-5.8500000000000441	0	0	0
2.1000000000000059	-5.8500000000000441	0	0	0
4.8000000000000114	-10.05000000000004	0	0	0
2.1000000000000099	-10.05000000000004	0	0	0
4.8000000000000158	-14.250000000000041	0	0	0
2.1000000000000139	-14.250000000000041	0	0	0
7.6000000000000192	-18.450000000000038	0	0	0
4.9000000000000181	-18.450000000000038	0	0	0
4.8000000000000211	-18.450000000000038	0	0	0
2.1000000000000192	-18.450000000000038	0	0	0
7.6000000000000156	-14.250000000000041	0	0	0
4.9000000000000146	-14.250000000000041	0	0	0
2.0000000000000089	-5.8500000000000449	0	0	0
-0.69999999999999307	-5.8500000000000449	0	0	0
2.0000000000000129	-10.05000000000005	0	0	0
-0.69999999999998919	-10.05000000000005	0	0	0
-0.79999999999999005	-5.8500000000000476	0	0	0
-3.499999999999992	-5.8500000000000476	0	0	0
2.0000000000000173	-14.250000000000041	0	0	0
-0.69999999999998475	-14.250000000000041	0	0	0
-3.5999999999999903	-5.8500000000000512	0	0	0
-6.2999999999999918	-5.8500000000000512	0	0	0
-0.79999999999998606	-10.05000000000005	0	0	0
-3.499999999999988	-10.05000000000005	0	0	0
2.0000000000000213	-18.450000000000038	0	0	0
-0.69999999999998042	-18.450000000000038	0	0	0
-3.5999999999999859	-10.05000000000005	0	0	0
-6.2999999999999883	-10.05000000000005	0	0	0
-0.79999999999998206	-14.25000000000005	0	0	0
-3.499999999999984	-14.25000000000005	0	0	0
-3.5999999999999823	-14.25000000000005	0	0	0
-6.2999999999999847	-14.25000000000005	0	0	0
-0.79999999999997806	-18.450000000000049	0	0	0
-3.49999999999998	-18.450000000000049	0	0	0
-3.599999999999977	-18.450000000000049	0	0	0
-6.2999999999999794	-18.450000000000049	0	0	0
-6.3999999999999897	-5.850000000000052	0	0	0
-9.0999999999999925	-5.850000000000052	0	0	0
-6.3999999999999861	-10.05000000000005	0	0	0
-9.0999999999999872	-10.05000000000005	0	0	0
-9.1999999999999886	-5.8500000000000538	0	0	0
-11.899999999999991	-5.8500000000000538	0	0	0
-6.3999999999999826	-14.25000000000005	0	0	0
-9.0999999999999854	-14.25000000000005	0	0	0
-11.999999999999989	-5.8500000000000574	0	0	0
-14.699999999999992	-5.8500000000000574	0	0	0
-6.3999999999999773	-18.450000000000049	0	0	0
-9.0999999999999783	-18.450000000000049	0	0	0
-9.199999999999978	-14.25000000000006	0	0	0
-11.899999999999981	-14.25000000000006	0	0	0
-11.999999999999989	-10.050000000000059	0	0	0
-14.699999999999992	-10.050000000000059	0	0	0
-9.199999999999978	-18.450000000000049	0	0	0
-11.899999999999981	-18.450000000000049	0	0	0
-9.1999999999999886	-10.050000000000059	0	0	0
-11.899999999999991	-10.050000000000059	0	0	0
-11.999999999999979	-14.25000000000006	0	0	0
-14.699999999999982	-14.25000000000006	0	0	0
-14.79999999999999	-5.85000000000006	0	0	0
-17.499999999999993	-5.85000000000006	0	0	0
-14.79999999999999	-10.050000000000059	0	0	0
-17.499999999999993	-10.050000000000059	0	0	0
-11.999999999999979	-18.450000000000049	0	0	0
-14.699999999999982	-18.450000000000049	0	0	0
-17.599999999999987	-5.8500000000000609	0	0	0
-20.29999999999999	-5.8500000000000609	0	0	0
-14.799999999999979	-14.25000000000006	0	0	0
-17.499999999999982	-14.25000000000006	0	0	0
-17.599999999999987	-10.050000000000059	0	0	0
-20.29999999999999	-10.050000000000059	0	0	0
-14.799999999999979	-18.45000000000006	0	0	0
-17.499999999999982	-18.45000000000006	0	0	0
-17.59999999999998	-14.25000000000006	0	0	0
-20.299999999999983	-14.25000000000006	0	0	0
-17.59999999999998	-18.45000000000006	0	0	0
-20.299999999999983	-18.45000000000006	0	0	0
-20.399999999999988	-5.8500000000000627	0	0	0
-23.099999999999991	-5.8500000000000627	0	0	0
-20.399999999999988	-10.050000000000059	0	0	0
-23.099999999999991	-10.050000000000059	0	0	0
-23.199999999999989	-5.8500000000000236	0	0	0
-25.899999999999991	-5.8500000000000236	0	0	0
-20.399999999999977	-18.45000000000006	0	0	0
-23.09999999999998	-18.45000000000006	0	0	0
-23.199999999999978	-14.250000000000069	0	0	0
-25.899999999999981	-14.250000000000069	0	0	0
-23.199999999999978	-18.45000000000007	0	0	0
-25.899999999999981	-18.45000000000007	0	0	0
-20.399999999999977	-14.25000000000006	0	0	0
-23.09999999999998	-14.25000000000006	0	0	0
-23.199999999999989	-10.050000000000059	0	0	0
-25.899999999999991	-10.050000000000059	0	0	0
18.800000000000022	-27.150000000000059	0	0	0
16.100000000000019	-27.150000000000059	0	0	0
21.60000000000003	-27.150000000000059	0	0	0
18.900000000000027	-27.150000000000059	0	0	0
24.400000000000041	-35.550000000000061	0	0	0
21.700000000000038	-35.550000000000061	0	0	0
24.400000000000031	-31.350000000000058	0	0	0
21.700000000000028	-31.350000000000058	0	0	0
24.400000000000031	-27.150000000000059	0	0	0
21.700000000000028	-27.150000000000059	0	0	0
27.200000000000031	-31.350000000000058	0	0	0
24.500000000000028	-31.350000000000058	0	0	0
27.200000000000031	-27.150000000000059	0	0	0
24.500000000000028	-27.150000000000059	0	0	0
27.30000000000004	-39.750000000000057	0	0	0
27.30000000000004	-35.550000000000061	0	0	0
27.300000000000029	-31.350000000000058	0	0	0
21.60000000000003	-31.350000000000058	0	0	0
18.900000000000027	-31.350000000000058	0	0	0
24.400000000000041	-39.750000000000057	0	0	0
21.700000000000038	-39.750000000000057	0	0	0
18.800000000000033	-31.350000000000058	0	0	0
16.10000000000003	-31.350000000000058	0	0	0
18.80000000000004	-39.750000000000057	0	0	0
16.100000000000037	-39.750000000000057	0	0	0
18.80000000000004	-35.550000000000061	0	0	0
16.100000000000037	-35.550000000000061	0	0	0
21.600000000000041	-39.750000000000057	0	0	0
18.900000000000038	-39.750000000000057	0	0	0
27.300000000000018	-27.150000000000059	0	0	0
27.200000000000042	-35.550000000000061	0	0	0
24.500000000000039	-35.550000000000061	0	0	0
16.000000000000039	-39.750000000000057	0	0	0
13.300000000000038	-39.750000000000057	0	0	0
16.000000000000039	-35.550000000000061	0	0	0
13.300000000000038	-35.550000000000061	0	0	0
27.200000000000042	-39.750000000000057	0	0	0
24.500000000000039	-39.750000000000057	0	0	0
21.600000000000041	-35.550000000000061	0	0	0
18.900000000000038	-35.550000000000061	0	0	0
16.000000000000021	-27.150000000000059	0	0	0
13.300000000000018	-27.150000000000059	0	0	0
13.200000000000021	-27.150000000000059	0	0	0
10.500000000000018	-27.150000000000059	0	0	0
13.200000000000042	-35.550000000000061	0	0	0
10.500000000000039	-35.550000000000061	0	0	0
13.200000000000031	-31.350000000000058	0	0	0
10.500000000000028	-31.350000000000058	0	0	0
10.400000000000039	-35.550000000000061	0	0	0
7.7000000000000366	-35.550000000000061	0	0	0
16.000000000000032	-31.350000000000058	0	0	0
13.300000000000029	-31.350000000000058	0	0	0
13.200000000000042	-39.750000000000057	0	0	0
10.500000000000039	-39.750000000000057	0	0	0
10.400000000000045	-39.750000000000057	0	0	0
7.7000000000000419	-39.750000000000057	0	0	0
10.400000000000034	-31.350000000000058	0	0	0
7.7000000000000313	-31.350000000000058	0	0	0
10.400000000000029	-27.150000000000059	0	0	0
7.7000000000000259	-27.150000000000059	0	0	0
7.6000000000000334	-31.350000000000058	0	0	0
4.9000000000000323	-31.350000000000058	0	0	0
7.6000000000000263	-27.150000000000059	0	0	0
4.9000000000000252	-27.150000000000059	0	0	0
4.8000000000000274	-27.150000000000059	0	0	0
2.1000000000000258	-27.150000000000059	0	0	0
4.8000000000000345	-31.350000000000058	0	0	0
2.1000000000000321	-31.350000000000058	0	0	0
4.800000000000038	-35.550000000000061	0	0	0
2.1000000000000361	-35.550000000000061	0	0	0
7.6000000000000423	-39.750000000000057	0	0	0
4.9000000000000412	-39.750000000000057	0	0	0
4.8000000000000433	-39.750000000000057	0	0	0
2.1000000000000409	-39.750000000000057	0	0	0
7.6000000000000387	-35.550000000000061	0	0	0
4.9000000000000359	-35.550000000000061	0	0	0
2.0000000000000284	-27.150000000000059	0	0	0
-0.69999999999997331	-27.150000000000059	0	0	0
2.0000000000000351	-31.350000000000058	0	0	0
-0.69999999999996698	-31.350000000000058	0	0	0
-0.79999999999997007	-27.150000000000059	0	0	0
-3.499999999999972	-27.150000000000059	0	0	0
2.0000000000000395	-35.550000000000061	0	0	0
-0.69999999999996254	-35.550000000000061	0	0	0
-3.5999999999999699	-27.150000000000059	0	0	0
-6.2999999999999723	-27.150000000000059	0	0	0
-0.79999999999996385	-31.350000000000058	0	0	0
-3.4999999999999658	-31.350000000000058	0	0	0
2.0000000000000435	-39.750000000000057	0	0	0
-0.69999999999995821	-39.750000000000057	0	0	0
-3.5999999999999637	-31.350000000000058	0	0	0
-6.2999999999999652	-31.350000000000058	0	0	0
-0.79999999999995985	-35.550000000000061	0	0	0
-3.4999999999999618	-35.550000000000061	0	0	0
-3.5999999999999601	-35.550000000000061	0	0	0
-6.2999999999999616	-35.550000000000061	0	0	0
-0.79999999999995497	-39.750000000000057	0	0	0
-3.4999999999999569	-39.750000000000057	0	0	0
-3.5999999999999548	-39.750000000000057	0	0	0
-6.2999999999999563	-39.750000000000057	0	0	0
-6.3999999999999702	-27.150000000000059	0	0	0
-9.099999999999973	-27.150000000000059	0	0	0
-6.3999999999999648	-31.350000000000058	0	0	0
-9.0999999999999677	-31.350000000000058	0	0	0
-9.1999999999999691	-27.150000000000059	0	0	0
-11.899999999999972	-27.150000000000059	0	0	0
-6.3999999999999595	-35.550000000000061	0	0	0
-9.0999999999999606	-35.550000000000061	0	0	0
-11.999999999999968	-27.150000000000059	0	0	0
-14.699999999999971	-27.150000000000059	0	0	0
-6.3999999999999559	-39.750000000000057	0	0	0
-9.0999999999999588	-39.750000000000057	0	0	0
-9.1999999999999584	-35.550000000000061	0	0	0
-11.899999999999961	-35.550000000000061	0	0	0
-11.999999999999959	-31.350000000000058	0	0	0
-14.699999999999962	-31.350000000000058	0	0	0
-9.1999999999999584	-39.750000000000057	0	0	0
-11.899999999999961	-39.750000000000057	0	0	0
-9.1999999999999584	-31.350000000000058	0	0	0
-11.899999999999961	-31.350000000000058	0	0	0
-11.999999999999959	-35.550000000000061	0	0	0
-14.699999999999962	-35.550000000000061	0	0	0
-14.799999999999969	-27.150000000000059	0	0	0
-17.499999999999972	-27.150000000000059	0	0	0
-14.799999999999958	-31.350000000000058	0	0	0
-17.499999999999961	-31.350000000000058	0	0	0
-11.999999999999948	-39.750000000000057	0	0	0
-14.699999999999951	-39.750000000000057	0	0	0
-17.599999999999969	-27.150000000000059	0	0	0
-20.299999999999972	-27.150000000000059	0	0	0
-14.799999999999958	-35.550000000000061	0	0	0
-17.499999999999961	-35.550000000000061	0	0	0
-17.599999999999969	-31.350000000000058	0	0	0
-20.299999999999972	-31.350000000000058	0	0	0
-14.799999999999947	-39.750000000000057	0	0	0
-17.49999999999995	-39.750000000000057	0	0	0
-17.599999999999959	-35.550000000000061	0	0	0
-20.299999999999962	-35.550000000000061	0	0	0
-17.599999999999959	-39.750000000000057	0	0	0
-20.299999999999962	-39.750000000000057	0	0	0
-20.39999999999997	-27.150000000000059	0	0	0
-23.099999999999973	-27.150000000000059	0	0	0
-20.39999999999997	-31.350000000000058	0	0	0
-23.099999999999973	-31.350000000000058	0	0	0
-23.19999999999996	-27.15000000000007	0	0	0
-25.899999999999963	-27.15000000000007	0	0	0
-20.399999999999959	-39.750000000000057	0	0	0
-23.099999999999962	-39.750000000000057	0	0	0
-23.19999999999996	-35.550000000000061	0	0	0
-25.899999999999963	-35.550000000000061	0	0	0
-23.19999999999996	-39.750000000000057	0	0	0
-25.899999999999963	-39.750000000000057	0	0	0
-20.39999999999997	-35.550000000000061	0	0	0
-23.099999999999973	-35.550000000000061	0	0	0
-23.19999999999996	-31.350000000000058	0	0	0
-25.899999999999963	-31.350000000000058	0	0	0
30.000000000000039	-46.850000000000051	0	0	0
28.500000000000039	-46.850000000000051	0	0	0
28.430000000000039	-46.850000000000051	0	0	0
26.930000000000039	-46.850000000000051	0	0	0
26.860000000000039	-46.850000000000051	0	0	0
25.360000000000039	-46.850000000000051	0	0	0
25.290000000000038	-46.850000000000051	0	0	0
23.790000000000038	-46.850000000000051	0	0	0
23.720000000000041	-46.850000000000051	0	0	0
22.220000000000041	-46.850000000000051	0	0	0
22.150000000000041	-46.850000000000051	0	0	0
20.650000000000041	-46.850000000000051	0	0	0
20.580000000000041	-46.850000000000051	0	0	0
19.080000000000041	-46.850000000000051	0	0	0
19.010000000000041	-46.850000000000051	0	0	0
17.510000000000041	-46.850000000000051	0	0	0
17.44000000000004	-46.850000000000051	0	0	0
15.94000000000004	-46.850000000000051	0	0	0
15.87000000000004	-46.850000000000051	0	0	0
14.37000000000004	-46.850000000000051	0	0	0
14.30000000000004	-46.850000000000051	0	0	0
12.80000000000004	-46.850000000000051	0	0	0
12.73000000000004	-46.850000000000051	0	0	0
11.23000000000004	-46.850000000000051	0	0	0
11.160000000000039	-46.850000000000051	0	0	0
9.6600000000000392	-46.850000000000051	0	0	0
9.5900000000000372	-46.850000000000051	0	0	0
8.0900000000000372	-46.850000000000051	0	0	0
8.0200000000000369	-46.850000000000051	0	0	0
6.5200000000000387	-46.850000000000051	0	0	0
6.4500000000000384	-46.850000000000051	0	0	0
4.9500000000000384	-46.850000000000051	0	0	0
4.8800000000000381	-46.850000000000051	0	0	0
3.3800000000000385	-46.850000000000051	0	0	0
3.3100000000000365	-46.850000000000051	0	0	0
1.8100000000000374	-46.850000000000051	0	0	0
1.7400000000000371	-46.850000000000051	0	0	0
0.24000000000003807	-46.850000000000051	0	0	0
0.17000000000003723	-46.850000000000051	0	0	0
-1.3299999999999619	-46.850000000000051	0	0	0
-1.3999999999999626	-46.850000000000051	0	0	0
-2.8999999999999617	-46.850000000000051	0	0	0
-2.9699999999999624	-46.850000000000051	0	0	0
-4.4699999999999616	-46.850000000000051	0	0	0
-4.5399999999999618	-46.850000000000051	0	0	0
-6.0399999999999618	-46.850000000000051	0	0	0
-6.1099999999999639	-46.850000000000051	0	0	0
-7.6099999999999621	-46.850000000000051	0	0	0
-7.6799999999999624	-46.850000000000051	0	0	0
-9.1799999999999624	-46.850000000000051	0	0	0
-9.2499999999999627	-46.850000000000051	0	0	0
-10.749999999999963	-46.850000000000051	0	0	0
-10.819999999999959	-46.850000000000051	0	0	0
-12.319999999999959	-46.850000000000051	0	0	0
-12.38999999999996	-46.850000000000051	0	0	0
-13.88999999999996	-46.850000000000051	0	0	0
-13.95999999999996	-46.850000000000051	0	0	0
-15.45999999999996	-46.850000000000051	0	0	0
-15.529999999999959	-46.850000000000051	0	0	0
-17.029999999999959	-46.850000000000051	0	0	0
-17.099999999999959	-46.850000000000051	0	0	0
-18.599999999999959	-46.850000000000051	0	0	0
-18.669999999999959	-46.850000000000051	0	0	0
-20.169999999999959	-46.850000000000051	0	0	0
-20.239999999999959	-46.850000000000051	0	0	0
-21.739999999999959	-46.850000000000051	0	0	0
-21.80999999999996	-46.850000000000051	0	0	0
-23.30999999999996	-46.850000000000051	0	0	0
-23.379999999999971	-46.850000000000051	0	0	0
-24.879999999999971	-46.850000000000051	0	0	0
-24.949999999999971	-46.850000000000051	0	0	0
-26.449999999999971	-46.850000000000051	0	0	0
[NumSegments] = 65
0	1	-1	0	0	0	0
2	3	-1	0	0	0	0
3	4	-1	0	0	0	0
5	6	-1	0	0	0	0
7	8	-1	0	0	0	0
8	9	-1	0	0	0	0
10	0	-1	0	0	0	0
11	12	-1	0	0	0	0
4	54	-1	0	0	0	0
13	11	-1	0	0	0	0
14	15	-1	0	0	0	0
16	17	-1	0	0	0	0
17	18	-1	0	0	0	0
19	20	-1	0	0	0	0
20	21	-1	0	0	0	0
21	22	-1	0	0	0	0
23	19	-1	0	0	0	0
24	25	-1	0	0	0	0
19	26	-1	0	0	0	0
26	24	-1	0	0	0	0
27	28	-1	0	0	0	0
28	29	-1	0	0	0	0
12	10	-1	0	0	0	0
12	30	-1	0	0	0	0
31	14	-1	0	0	0	0
26	31	-1	0	0	0	0
18	29	-1	0	0	0	0
29	32	-1	0	0	0	0
32	24	-1	0	0	0	0
32	33	-1	0	0	0	0
34	5	-1	0	0	0	0
28	34	-1	0	0	0	0
9	30	-1	0	0	0	0
30	35	-1	0	0	0	0
35	27	-1	0	0	0	0
35	36	-1	0	0	0	0
37	16	-1	0	0	0	0
25	38	-1	0	0	0	0
38	39	-1	0	0	0	0
39	40	-1	0	0	0	0
40	20	-1	0	0	0	0
41	23	-1	0	0	0	0
44	45	-1	0	0	0	0
46	27	-1	0	0	0	0
47	60	-1	0	0	0	0
48	58	-1	0	0	0	0
33	59	-1	0	0	0	0
49	7	-1	0	0	0	0
50	11	-1	0	0	0	0
51	50	-1	0	0	0	0
52	62	-1	0	0	0	0
36	52	-1	0	0	0	0
53	2	-1	0	0	0	0
54	13	-1	0	0	0	0
54	55	-1	0	0	0	0
55	56	-1	0	0	0	0
56	531	-1	0	0	0	0
57	46	-1	0	0	0	0
58	61	-1	0	0	0	0
59	48	-1	0	0	0	0
60	57	-1	0	0	0	0
61	47	-1	0	0	0	0
62	51	-1	0	0	0	0
531	13	-1	0	0	0	0
43	42	-1	0	0	0	0
[NumArcSegments] = 558
37	15	180	5	1	0	0	0	5
25	63	180	5	0	0	0	0	5
63	25	180	5	0	0	0	0	5
38	64	180	5	0	0	0	0	5
64	38	180	5	0	0	0	0	5
39	65	180	5	0	0	0	0	5
65	39	180	5	0	0	0	0	5
40	66	180	5	0	0	0	0	5
66	40	180	5	0	0	0	0	5
67	68	180	5	0	0	0	0	5
68	67	180	5	0	0	0	0	5
69	70	180	5	0	0	0	0	5
70	69	180	5	0	0	0	0	5
71	72	180	5	0	0	0	0	5
72	71	180	5	0	0	0	0	5
73	74	180	5	0	0	0	0	5
74	73	180	5	0	0	0	0	5
75	76	180	5	0	0	0	0	5
76	75	180	5	0	0	0	0	5
77	78	180	5	0	0	0	0	5
78	77	180	5	0	0	0	0	5
79	80	180	5	0	0	0	0	5
80	79	180	5	0	0	0	0	5
81	82	180	5	0	0	0	0	5
82	81	180	5	0	0	0	0	5
83	84	180	5	0	0	0	0	5
84	83	180	5	0	0	0	0	5
85	86	180	5	0	0	0	0	5
86	85	180	5	0	0	0	0	5
87	88	180	5	0	0	0	0	5
88	87	180	5	0	0	0	0	5
89	90	180	5	0	0	0	0	5
90	89	180	5	0	0	0	0	5
91	92	180	5	0	0	0	0	5
92	91	180	5	0	0	0	0	5
93	94	180	5	0	0	0	0	5
94	93	180	5	0	0	0	0	5
95	96	180	5	0	0	0	0	5
96	95	180	5	0	0	0	0	5
97	98	180	5	0	0	0	0	5
98	97	180	5	0	0	0	0	5
99	100	180	5	0	0	0	0	5
100	99	180	5	0	0	0	0	5
101	102	180	5	0	0	0	0	5
102	101	180	5	0	0	0	0	5
103	104	180	5	0	0	0	0	5
104	103	180	5	0	0	0	0	5
105	106	180	5	0	0	0	0	5
106	105	180	5	0	0	0	0	5